<?xml version='1.0' encoding='UTF-8'?>
<additional>
    <edgeData id="edgeData_00" file="C:\Users\86151\Desktop\project\data\test\05-02_19-02-31_test_edge.xml" begin="0" end="3600" freq="900"/>
    <laneData id="laneData_00" file="C:\Users\86151\Desktop\project\data\test\05-02_19-02-31_test_lane.xml" begin="0" end="3600" freq="900"/>
    </additional>
    
