<?xml version='1.0' encoding='UTF-8'?>
<additional>
    <edgeData id="edgeData_00" file="C:\Users\22734\Desktop\rl-constraints-traffic-main\data\train\04-28_11-22-02_edge.xml" begin="0" end="3600" freq="900"/>
    <laneData id="laneData_00" file="C:\Users\22734\Desktop\rl-constraints-traffic-main\data\train\04-28_11-22-02_lane.xml" begin="0" end="3600" freq="900"/>
    </additional>
    
