<?xml version='1.0' encoding='UTF-8'?>
<additional>
    <edgeData id="edgeData_00" file="C:\Users\22734\Desktop\rl-constraints-traffic-main\data\false\04-29_14-59-11_edge.xml" begin="0" end="3600" freq="900"/>
    <laneData id="laneData_00" file="C:\Users\22734\Desktop\rl-constraints-traffic-main\data\false\04-29_14-59-11_lane.xml" begin="0" end="3600" freq="900"/>
    </additional>
    
